Iowa_Distribution_Test_Systems/OpenDSS Model/OpenDSS Model/240_bus_test_system_Power_elem_kVA.txt

CIRCUIT ELEMENT POWER FLOW

(Power Flow into element from indicated Bus)

Power Delivery Elements

  Bus         Phase     kW     +j   kvar         kVA         PF

ELEMENT = "Vsource.SOURCE"
EQ_SOURCE_BUS     1      -394.5 +j    -95.0      405.8       0.9722
EQ_SOURCE_BUS     2      -377.5 +j    -64.8      383.0       0.9856
EQ_SOURCE_BUS     3      -412.2 +j    -65.0      417.3       0.9878
   TERMINAL TOTAL ..... -1184.2 +j   -224.9     1205.3       0.9824
EQ_SOURCE_BUS     0         0.0 +j      0.0        0.0       1.0000
EQ_SOURCE_BUS     0         0.0 +j      0.0        0.0       1.0000
EQ_SOURCE_BUS     0         0.0 +j      0.0        0.0       1.0000
   TERMINAL TOTAL .....     0.0 +j      0.0        0.0       1.0000

ELEMENT = "Transformer.SUB_XFMR"
EQ_SOURCE_BUS     1       394.5 +j     95.0      405.8       0.9722
EQ_SOURCE_BUS     2       377.5 +j     64.8      383.0       0.9856
EQ_SOURCE_BUS     3       412.2 +j     65.0      417.3       0.9878
EQ_SOURCE_BUS     0         0.0 +j      0.0        0.0       1.0000
   TERMINAL TOTAL .....  1184.2 +j    224.9     1205.3       0.9824
BUS_XFMR          1      -432.0 +j    -79.8      439.3       0.9834
BUS_XFMR          2      -364.9 +j    -65.0      370.7       0.9845
BUS_XFMR          3      -385.4 +j    -70.8      391.8       0.9835
BUS_XFMR          0         0.0 +j      0.0        0.0       1.0000
   TERMINAL TOTAL ..... -1182.3 +j   -215.7     1201.8       0.9838

ELEMENT = "Transformer.SUB_REGULATOR_A"
BUS_XFMR          1       432.0 +j     79.8      439.3       0.9834
BUS_XFMR          0         0.0 +j      0.0        0.0       1.0000
   TERMINAL TOTAL .....   432.0 +j     79.8      439.3       0.9834
BUS1              1      -432.0 +j    -79.8      439.3       0.9834
BUS1              0         0.0 +j      0.0        0.0       1.0000
   TERMINAL TOTAL .....  -432.0 +j    -79.8      439.3       0.9834

ELEMENT = "Transformer.SUB_REGULATOR_B"
BUS_XFMR          2       364.9 +j     65.0      370.7       0.9845
BUS_XFMR          0         0.0 +j      0.0        0.0       1.0000
   TERMINAL TOTAL .....   364.9 +j     65.0      370.7       0.9845
BUS1              2      -364.9 +j    -65.0      370.7       0.9845
BUS1              0         0.0 +j      0.0        0.0       1.0000
   TERMINAL TOTAL .....  -364.9 +j    -65.0      370.7       0.9845

ELEMENT = "Transformer.SUB_REGULATOR_C"
BUS_XFMR          3       385.4 +j     70.8      391.8       0.9835
BUS_XFMR          0         0.0 +j      0.0        0.0       1.0000
   TERMINAL TOTAL .....   385.4 +j     70.8      391.8       0.9835
BUS1              3      -385.4 +j    -70.8      391.8       0.9835
BUS1              0         0.0 +j      0.0        0.0       1.0000
   TERMINAL TOTAL .....  -385.4 +j    -70.8      391.8       0.9835

ELEMENT = "Transformer.T_1003"
BUS1003           1         5.1 +j      1.3        5.3       0.9689
BUS1003           2         5.1 +j      1.3        5.3       0.9689
BUS1003           3         5.1 +j      1.3        5.3       0.9689
BUS1003           0         0.0 +j      0.0        0.0       1.0000
   TERMINAL TOTAL .....    15.3 +j      3.9       15.8       0.9689
T_BUS1003_L       1        -5.1 +j     -1.3        5.3       0.9700
T_BUS1003_L       2        -5.1 +j     -1.3        5.3       0.9700
T_BUS1003_L       3        -5.1 +j     -1.3        5.3       0.9700
T_BUS1003_L       0         0.0 +j      0.0        0.0       1.0000
   TERMINAL TOTAL .....   -15.3 +j     -3.8       15.8       0.9700

ELEMENT = "Transformer.T_1004"
BUS1004           1         2.3 +j      1.1        2.6       0.8997
BUS1004           2         2.3 +j      1.1        2.6       0.8997
BUS1004           3         2.3 +j      1.1        2.6       0.8997
BUS1004           0         0.0 +j      0.0        0.0       1.0000
   TERMINAL TOTAL .....     6.9 +j      3.4        7.7       0.8997
T_BUS1004_L       1        -2.3 +j     -1.1        2.6       0.9000
T_BUS1004_L       2        -2.3 +j     -1.1        2.6       0.9000
T_BUS1004_L       3        -2.3 +j     -1.1        2.6       0.9000
T_BUS1004_L       0         0.0 +j      0.0        0.0       1.0000
   TERMINAL TOTAL .....    -6.9 +j     -3.3        7.7       0.9000

ELEMENT = "Transformer.T_1005"
BUS1005           1         1.6 +j      0.6        1.8       0.9298
BUS1005           2         1.6 +j      0.6        1.8       0.9298
BUS1005           3         1.6 +j      0.6        1.8       0.9298
BUS1005           0         0.0 +j      0.0        0.0       1.0000
   TERMINAL TOTAL .....     4.9 +j      1.9        5.3       0.9298
T_BUS1005_L       1        -1.6 +j     -0.6        1.8       0.9300
T_BUS1005_L       2        -1.6 +j     -0.6        1.8       0.9300
T_BUS1005_L       3        -1.6 +j     -0.6        1.8       0.9300
T_BUS1005_L       0         0.0 +j      0.0        0.0       1.0000
   TERMINAL TOTAL .....    -4.9 +j     -1.9        5.3       0.9300

ELEMENT = "Transformer.T_1006"
BUS1006           1         3.2 +j     -0.3        3.2      -0.9955
BUS1006           2         1.9 +j      2.6        3.2       0.5786
BUS1006           0         0.0 +j      0.0        0.0       1.0000
   TERMINAL TOTAL .....     5.0 +j      2.3        5.6       0.9091
T_BUS1006_L       1        -3.2 +j      0.3        3.2      -0.9950
T_BUS1006_L       2        -1.9 +j     -2.6        3.2       0.5786
T_BUS1006_L       0         0.0 +j      0.0        0.0       1.0000
   TERMINAL TOTAL .....    -5.0 +j     -2.3        5.5       0.9100

ELEMENT = "Transformer.T_1007"
BUS1007           1         2.7 +j     -0.2        2.7      -0.9976
BUS1007           2         1.5 +j      2.2        2.7       0.5577
BUS1007           0         0.0 +j      0.0        0.0       1.0000
   TERMINAL TOTAL .....     4.2 +j      2.0        4.7       0.8983
T_BUS1007_L       1        -2.7 +j      0.2        2.7      -0.9967
T_BUS1007_L       2        -1.5 +j     -2.2        2.7       0.5577
T_BUS1007_L       0         0.0 +j      0.0        0.0       1.0000
   TERMINAL TOTAL .....    -4.2 +j     -2.0        4.6       0.9000

ELEMENT = "Transformer.T_1008"
BUS1008           1         4.7 +j      2.2        5.2       0.9093
BUS1008           2         4.7 +j      2.2        5.2       0.9093
BUS1008           3         4.7 +j      2.2        5.2       0.9093
BUS1008           0         0.0 +j      0.0        0.0       1.0000
   TERMINAL TOTAL .....    14.2 +j      6.5       15.6       0.9093
T_BUS1008_L       1        -4.7 +j     -2.1        5.2       0.9100
T_BUS1008_L       2        -4.7 +j     -2.1        5.2       0.9100
T_BUS1008_L       3        -4.7 +j     -2.1        5.2       0.9100
T_BUS1008_L       0         0.0 +j      0.0        0.0       1.0000
   TERMINAL TOTAL .....   -14.1 +j     -6.4       15.5       0.9100

ELEMENT = "Transformer.T_1009"
BUS1009           1         5.7 +j      2.3        6.2       0.9292
BUS1009           2         5.7 +j      2.3        6.2       0.9292
BUS1009           3         5.7 +j      2.3        6.2       0.9292
BUS1009           0         0.0 +j      0.0        0.0       1.0000
   TERMINAL TOTAL .....    17.2 +j      6.8       18.5       0.9292
T_BUS1009_L       1        -5.7 +j     -2.3        6.1       0.9300
T_BUS1009_L       2        -5.7 +j     -2.3        6.1       0.9300
T_BUS1009_L       3        -5.7 +j     -2.3        6.1       0.9300
T_BUS1009_L       0         0.0 +j      0.0        0.0       1.0000
   TERMINAL TOTAL .....   -17.1 +j     -6.8       18.4       0.9300

ELEMENT = "Transformer.T_1010"
BUS1010           1         2.4 +j      0.9        2.6       0.9296
BUS1010           2         2.4 +j      0.9        2.6       0.9296
BUS1010           3         2.4 +j      0.9        2.6       0.9296
BUS1010           0         0.0 +j      0.0        0.0       1.0000
   TERMINAL TOTAL .....     7.2 +j      2.8        7.7       0.9296
T_BUS1010_L       1        -2.4 +j     -0.9        2.6       0.9300
T_BUS1010_L       2        -2.4 +j     -0.9        2.6       0.9300
T_BUS1010_L       3        -2.4 +j     -0.9        2.6       0.9300
T_BUS1010_L       0         0.0 +j      0.0        0.0       1.0000
   TERMINAL TOTAL .....    -7.1 +j     -2.8        7.7       0.9300

ELEMENT = "Transformer.T_1011"
BUS1011           1         3.1 +j      1.0        3.3       0.9495
BUS1011           0         0.0 +j      0.0        0.0       1.0000
   TERMINAL TOTAL .....     3.1 +j      1.0        3.3       0.9495
T_BUS1011_L       1        -1.6 +j     -0.5        1.6       0.9500
T_BUS1011_L       0         0.0 +j      0.0        0.0       1.0000
   TERMINAL TOTAL .....    -1.6 +j     -0.5        1.6       0.9500
T_BUS1011_L       0         0.0 +j      0.0        0.0       1.0000
T_BUS1011_L       2        -1.6 +j     -0.5        1.6       0.9500
   TERMINAL TOTAL .....    -1.6 +j     -0.5        1.6       0.9500

ELEMENT = "Transformer.T_1012"
BUS1012           2         3.1 +j      1.1        3.3       0.9396
BUS1012           0         0.0 +j      0.0        0.0       1.0000
   TERMINAL TOTAL .....     3.1 +j      1.1        3.3       0.9396
T_BUS1012_L       1        -1.5 +j     -0.6        1.6       0.9400
T_BUS1012_L       0         0.0 +j      0.0        0.0       1.0000
   TERMINAL TOTAL .....    -1.5 +j     -0.6        1.6       0.9400
T_BUS1012_L       0         0.0 +j      0.0        0.0       1.0000
T_BUS1012_L       2        -1.5 +j     -0.6        1.6       0.9400
   TERMINAL TOTAL .....    -1.5 +j     -0.6        1.6       0.9400

ELEMENT = "Transformer.T_1013"
BUS1013           1         0.5 +j      0.1        0.5       0.9599
BUS1013           2         0.5 +j      0.1        0.5       0.9599
BUS1013           3         0.5 +j      0.1        0.5       0.9599
BUS1013           0         0.0 +j      0.0        0.0       1.0000
   TERMINAL TOTAL .....     1.5 +j      0.4        1.6       0.9599
T_BUS1013_L       1        -0.5 +j     -0.1        0.5       0.9600
T_BUS1013_L       2        -0.5 +j     -0.1        0.5       0.9600
T_BUS1013_L       3        -0.5 +j     -0.1        0.5       0.9600
T_BUS1013_L       0         0.0 +j      0.0        0.0       1.0000
   TERMINAL TOTAL .....    -1.5 +j     -0.4        1.6       0.9600

ELEMENT = "Transformer.T_1014"
BUS1014           2         0.5 +j      0.2        0.5       0.9199
BUS1014           0         0.0 +j      0.0        0.0       1.0000
   TERMINAL TOTAL .....     0.5 +j      0.2        0.5       0.9199
T_BUS1014_L       1        -0.2 +j     -0.1        0.2       0.9200
T_BUS1014_L       0         0.0 +j      0.0        0.0       1.0000
   TERMINAL TOTAL .....    -0.2 +j     -0.1        0.2       0.9200
T_BUS1014_L       0         0.0 +j      0.0        0.0       1.0000
T_BUS1014_L       2        -0.2 +j     -0.1        0.2       0.9200
   TERMINAL TOTAL .....    -0.2 +j     -0.1        0.2       0.9200

ELEMENT = "Transformer.T_1015"
BUS1015           2         0.8 +j      0.2        0.8       0.9799
BUS1015           0         0.0 +j      0.0        0.0       1.0000
   TERMINAL TOTAL .....     0.8 +j      0.2        0.8       0.9799
T_BUS1015_L       1        -0.4 +j     -0.1        0.4       0.9800
T_BUS1015_L       0         0.0 +j      0.0        0.0       1.0000
   TERMINAL TOTAL .....    -0.4 +j     -0.1        0.4       0.9800
T_BUS1015_L       0         0.0 +j      0.0        0.0       1.0000
T_BUS1015_L       2        -0.4 +j     -0.1        0.4       0.9800
   TERMINAL TOTAL .....    -0.4 +j     -0.1        0.4       0.9800

ELEMENT = "Transformer.T_1016"
BUS1016           3         3.1 +j      1.5        3.4       0.8997
BUS1016           0         0.0 +j      0.0        0.0       1.0000
   TERMINAL TOTAL .....     3.1 +j      1.5        3.4       0.8997
T_BUS1016_L       1        -1.5 +j     -0.7        1.7       0.9000
T_BUS1016_L       0         0.0 +j      0.0        0.0       1.0000
   TERMINAL TOTAL .....    -1.5 +j     -0.7        1.7       0.9000
T_BUS1016_L       0         0.0 +j      0.0        0.0       1.0000
T_BUS1016_L       2        -1.5 +j     -0.7        1.7       0.9000
   TERMINAL TOTAL .....    -1.5 +j     -0.7        1.7       0.9000

ELEMENT = "Transformer.T_1017"
BUS1017           3         2.1 +j      0.6        2.2       0.9598
BUS1017           0         0.0 +j      0.0        0.0       1.0000
   TERMINAL TOTAL .....     2.1 +j      0.6        2.2       0.9598
T_BUS1017_L       1        -1.1 +j     -0.3        1.1       0.9600
T_BUS1017_L       0         0.0 +j      0.0        0.0       1.0000
   TERMINAL TOTAL .....    -1.1 +j     -0.3        1.1       0.9600
T_BUS1017_L       0         0.0 +j      0.0        0.0       1.0000
T_BUS1017_L       2        -1.1 +j     -0.3        1.1       0.9600
   TERMINAL TOTAL .....    -1.1 +j     -0.3        1.1       0.9600

ELEMENT = "Transformer.T_2002"
BUS2002           1         9.3 +j      3.4        9.9       0.9388
BUS2002           2         9.3 +j      3.4        9.9       0.9388
BUS2002           3         9.3 +j      3.4        9.9       0.9388
BUS2002           0         0.0 +j      0.0        0.0       1.0000
   TERMINAL TOTAL .....    28.0 +j     10.3       29.8       0.9388
T_BUS2002_L       1        -9.3 +j     -3.4        9.9       0.9400
T_BUS2002_L       2        -9.3 +j     -3.4        9.9       0.9400
T_BUS2002_L       3        -9.3 +j     -3.4        9.9       0.9400
T_BUS2002_L       0         0.0 +j      0.0        0.0       1.0000
   TERMINAL TOTAL .....   -27.9 +j    -10.1       29.7       0.9400

ELEMENT = "Transformer.T_2003"
BUS2003           1         4.8 +j      1.2        4.9       0.9694
BUS2003           2         4.8 +j      1.2        4.9       0.9694
BUS2003           3         4.8 +j      1.2        4.9       0.9694
BUS2003           0         0.0 +j      0.0        0.0       1.0000
   TERMINAL TOTAL .....    14.3 +j      3.6       14.8       0.9694
T_BUS2003_L       1        -4.8 +j     -1.2        4.9       0.9700
T_BUS2003_L       2        -4.8 +j     -1.2        4.9       0.9700
T_BUS2003_L       3        -4.8 +j     -1.2        4.9       0.9700
T_BUS2003_L       0         0.0 +j      0.0        0.0       1.0000
   TERMINAL TOTAL .....   -14.3 +j     -3.6       14.7       0.9700

ELEMENT = "Transformer.T_2005"
BUS2005           1         3.0 +j      1.2        3.2       0.9295
BUS2005           2         3.0 +j      1.2        3.2       0.9295
BUS2005           3         3.0 +j      1.2        3.2       0.9295
BUS2005           0         0.0 +j      0.0        0.0       1.0000
   TERMINAL TOTAL .....     9.0 +j      3.6        9.7       0.9295
T_BUS2005_L       1        -3.0 +j     -1.2        3.2       0.9300
T_BUS2005_L       2        -3.0 +j     -1.2        3.2       0.9300
T_BUS2005_L       3        -3.0 +j     -1.2        3.2       0.9300
T_BUS2005_L       0         0.0 +j      0.0        0.0       1.0000
   TERMINAL TOTAL .....    -8.9 +j     -3.5        9.6       0.9300

ELEMENT = "Transformer.T_2008"
BUS2008           1         2.1 +j      0.9        2.3       0.9096
BUS2008           0         0.0 +j      0.0        0.0       1.0000
   TERMINAL TOTAL .....     2.1 +j      0.9        2.3       0.9096
T_BUS2008_L       1        -1.0 +j     -0.5        1.1       0.9100
T_BUS2008_L       0         0.0 +j      0.0        0.0       1.0000
   TERMINAL TOTAL .....    -1.0 +j     -0.5        1.1       0.9100
T_BUS2008_L       0         0.0 +j      0.0        0.0       1.0000
T_BUS2008_L       2        -1.0 +j     -0.5        1.1       0.9100
   TERMINAL TOTAL .....    -1.0 +j     -0.5        1.1       0.9100

ELEMENT = "Transformer.T_2009"
BUS2009           1         1.2 +j      0.5        1.3       0.9297
BUS2009           0         0.0 +j      0.0        0.0       1.0000
   TERMINAL TOTAL .....     1.2 +j      0.5        1.3       0.9297
T_BUS2009_L       1        -0.6 +j     -0.2        0.7       0.9300
T_BUS2009_L       0         0.0 +j      0.0        0.0       1.0000
   TERMINAL TOTAL .....    -0.6 +j     -0.2        0.7       0.9300
T_BUS2009_L       0         0.0 +j      0.0        0.0       1.0000
T_BUS2009_L       2        -0.6 +j     -0.2        0.7       0.9300
   TERMINAL TOTAL .....    -0.6 +j     -0.2        0.7       0.9300

ELEMENT = "Transformer.T_2010"
BUS2010           1         0.8 +j      0.3        0.8       0.9299
BUS2010           2         0.8 +j      0.3        0.8       0.9299
BUS2010           3         0.8 +j      0.3        0.8       0.9299
BUS2010           0         0.0 +j      0.0        0.0       1.0000
   TERMINAL TOTAL .....     2.3 +j      0.9        2.5       0.9299
T_BUS2010_L       1        -0.8 +j     -0.3        0.8       0.9300
T_BUS2010_L       2        -0.8 +j     -0.3        0.8       0.9300
T_BUS2010_L       3        -0.8 +j     -0.3        0.8       0.9300
T_BUS2010_L       0         0.0 +j      0.0        0.0       1.0000
   TERMINAL TOTAL .....    -2.3 +j     -0.9        2.5       0.9300

ELEMENT = "Transformer.T_2011"
BUS2011           1         1.8 +j      0.6        1.9       0.9497
BUS2011           2         1.8 +j      0.6        1.9       0.9497
BUS2011           3         1.8 +j      0.6        1.9       0.9497
BUS2011           0         0.0 +j      0.0        0.0       1.0000
   TERMINAL TOTAL .....     5.4 +j      1.8        5.7       0.9497
T_BUS2011_L       1        -1.8 +j     -0.6        1.9       0.9500
T_BUS2011_L       2        -1.8 +j     -0.6        1.9       0.9500
T_BUS2011_L       3        -1.8 +j     -0.6        1.9       0.9500
T_BUS2011_L       0         0.0 +j      0.0        0.0       1.0000
   TERMINAL TOTAL .....    -5.4 +j     -1.8        5.7       0.9500

ELEMENT = "Transformer.T_2014"
BUS2014           2         2.8 +j      0.8        2.9       0.9597
BUS2014           0         0.0 +j      0.0        0.0       1.0000
   TERMINAL TOTAL .....     2.8 +j      0.8        2.9       0.9597
T_BUS2014_L       1        -1.4 +j     -0.4        1.5       0.9600
T_BUS2014_L       0         0.0 +j      0.0        0.0       1.0000
   TERMINAL TOTAL .....    -1.4 +j     -0.4        1.5       0.9600
T_BUS2014_L       0         0.0 +j      0.0        0.0       1.0000
T_BUS2014_L       2        -1.4 +j     -0.4        1.5       0.9600
   TERMINAL TOTAL .....    -1.4 +j     -0.4        1.5       0.9600

ELEMENT = "Transformer.T_2015"
BUS2015           2         1.5 +j      0.6        1.6       0.9197
BUS2015           0         0.0 +j      0.0        0.0       1.0000
   TERMINAL TOTAL .....     1.5 +j      0.6        1.6       0.9197
T_BUS2015_L       1        -0.7 +j     -0.3        0.8       0.9200
T_BUS2015_L       0         0.0 +j      0.0        0.0       1.0000
   TERMINAL TOTAL .....    -0.7 +j     -0.3        0.8       0.9200
T_BUS2015_L       0         0.0 +j      0.0        0.0       1.0000
T_BUS2015_L       2        -0.7 +j     -0.3        0.8       0.9200
   TERMINAL TOTAL .....    -0.7 +j     -0.3        0.8       0.9200

ELEMENT = "Transformer.T_2016"
BUS2016           2         1.6 +j      0.3        1.7       0.9798
BUS2016           0         0.0 +j      0.0        0.0       1.0000
   TERMINAL TOTAL .....     1.6 +j      0.3        1.7       0.9798
T_BUS2016_L       1        -0.8 +j     -0.2        0.8       0.9800
T_BUS2016_L       0         0.0 +j      0.0        0.0       1.0000
   TERMINAL TOTAL .....    -0.8 +j     -0.2        0.8       0.9800
T_BUS2016_L       0         0.0 +j      0.0        0.0       1.0000
T_BUS2016_L       2        -0.8 +j     -0.2        0.8       0.9800
   TERMINAL TOTAL .....    -0.8 +j     -0.2        0.8       0.9800

ELEMENT = "Transformer.T_2017"
BUS2017           2         5.1 +j      2.5        5.7       0.8989
BUS2017           0         0.0 +j      0.0        0.0       1.0000
   TERMINAL TOTAL .....     5.1 +j      2.5        5.7       0.8989
T_BUS2017_L       1        -2.6 +j     -1.2        2.8       0.9000
T_BUS2017_L       0         0.0 +j      0.0        0.0       1.0000
   TERMINAL TOTAL .....    -2.6 +j     -1.2        2.8       0.9000
T_BUS2017_L       0         0.0 +j      0.0        0.0       1.0000
T_BUS2017_L       2        -2.6 +j     -1.2        2.8       0.9000
   TERMINAL TOTAL .....    -2.6 +j     -1.2        2.8       0.9000

ELEMENT = "Transformer.T_2018"
BUS2018           2         2.8 +j      0.8        2.9       0.9595
BUS2018           0         0.0 +j      0.0        0.0       1.0000
   TERMINAL TOTAL .....     2.8 +j      0.8        2.9       0.9595
T_BUS2018_L       1        -1.4 +j     -0.4        1.5       0.9600
T_BUS2018_L       0         0.0 +j      0.0        0.0       1.0000
   TERMINAL TOTAL .....    -1.4 +j     -0.4        1.5       0.9600
T_BUS2018_L       0         0.0 +j      0.0        0.0       1.0000
T_BUS2018_L       2        -1.4 +j     -0.4        1.5       0.9600
   TERMINAL TOTAL .....    -1.4 +j     -0.4        1.5       0.9600

ELEMENT = "Transformer.T_2020"
BUS2020           2         3.1 +j      1.0        3.3       0.9495
BUS2020           0         0.0 +j      0.0        0.0       1.0000
   TERMINAL TOTAL .....     3.1 +j      1.0        3.3       0.9495
T_BUS2020_L       1        -1.5 +j     -0.5        1.6       0.9500
T_BUS2020_L       0         0.0 +j      0.0        0.0       1.0000
   TERMINAL TOTAL .....    -1.5 +j     -0.5        1.6       0.9500
T_BUS2020_L       0         0.0 +j      0.0        0.0       1.0000
T_BUS2020_L       2        -1.5 +j     -0.5        1.6       0.9500
   TERMINAL TOTAL .....    -1.5 +j     -0.5        1.6       0.9500

ELEMENT = "Transformer.T_2022"
BUS2022           3         2.7 +j      1.2        3.0       0.9094
BUS2022           0         0.0 +j      0.0        0.0       1.0000
   TERMINAL TOTAL .....     2.7 +j      1.2        3.0       0.9094
T_BUS2022_L       1        -1.4 +j     -0.6        1.5       0.9100
T_BUS2022_L       0         0.0 +j      0.0        0.0       1.0000
   TERMINAL TOTAL .....    -1.4 +j     -0.6        1.5       0.9100
T_BUS2022_L       0         0.0 +j      0.0        0.0       1.0000
T_BUS2022_L       2        -1.4 +j     -0.6        1.5       0.9100
   TERMINAL TOTAL .....    -1.4 +j     -0.6        1.5       0.9100

ELEMENT = "Transformer.T_2023"
BUS2023           3         0.7 +j      0.1        0.7       0.9799
BUS2023           0         0.0 +j      0.0        0.0       1.0000
   TERMINAL TOTAL .....     0.7 +j      0.1        0.7       0.9799
T_BUS2023_L       1        -0.4 +j     -0.1        0.4       0.9800
T_BUS2023_L       0         0.0 +j      0.0        0.0       1.0000
   TERMINAL TOTAL .....    -0.4 +j     -0.1        0.4       0.9800
T_BUS2023_L       0         0.0 +j      0.0        0.0       1.0000
T_BUS2023_L       2        -0.4 +j     -0.1        0.4       0.9800
   TERMINAL TOTAL .....    -0.4 +j     -0.1        0.4       0.9800

ELEMENT = "Transformer.T_2024"
BUS2024           3         2.6 +j      0.4        2.6       0.9898
BUS2024           0         0.0 +j      0.0        0.0       1.0000
   TERMINAL TOTAL .....     2.6 +j      0.4        2.6       0.9898
T_BUS2024_L       1        -1.3 +j     -0.2        1.3       0.9900
T_BUS2024_L       0         0.0 +j      0.0        0.0       1.0000
   TERMINAL TOTAL .....    -1.3 +j     -0.2        1.3       0.9900
T_BUS2024_L       0         0.0 +j      0.0        0.0       1.0000
T_BUS2024_L       2        -1.3 +j     -0.2        1.3       0.9900
   TERMINAL TOTAL .....    -1.3 +j     -0.2        1.3       0.9900

ELEMENT = "Transformer.T_2025"
BUS2025           3         2.7 +j      1.1        2.9       0.9295
BUS2025           0         0.0 +j      0.0        0.0       1.0000
   TERMINAL TOTAL .....     2.7 +j      1.1        2.9       0.9295
T_BUS2025_L       1        -1.4 +j     -0.5        1.5       0.9300
T_BUS2025_L       0         0.0 +j      0.0        0.0       1.0000
   TERMINAL TOTAL .....    -1.4 +j     -0.5        1.5       0.9300
T_BUS2025_L       0         0.0 +j      0.0        0.0       1.0000
T_BUS2025_L       2        -1.4 +j     -0.5        1.5       0.9300
   TERMINAL TOTAL .....    -1.4 +j     -0.5        1.5       0.9300

ELEMENT = "Transformer.T_2028"
BUS2028           1         0.0 +j      0.0        0.0       0.0002
BUS2028           0         0.0 +j      0.0        0.0       1.0000
   TERMINAL TOTAL .....     0.0 +j      0.0        0.0       0.0002
T_BUS2028_L       1        -0.0 +j      0.0        0.0      -1.0000
T_BUS2028_L       0         0.0 +j      0.0        0.0       1.0000
   TERMINAL TOTAL .....    -0.0 +j      0.0        0.0      -1.0000
T_BUS2028_L       0         0.0 +j      0.0        0.0       1.0000
T_BUS2028_L       2        -0.0 +j     -0.0        0.0       1.0000
   TERMINAL TOTAL .....    -0.0 +j     -0.0        0.0       1.0000

ELEMENT = "Transformer.T_2029"
BUS2029           1         3.2 +j      0.6        3.2       0.9796
BUS2029           2         3.2 +j      0.6        3.2       0.9796
BUS2029           3         3.2 +j      0.6        3.2       0.9796
BUS2029           0         0.0 +j      0.0        0.0       1.0000
   TERMINAL TOTAL .....     9.5 +j      1.9        9.7       0.9796
T_BUS2029_L       1        -3.1 +j     -0.6        3.2       0.9800
T_BUS2029_L       2        -3.1 +j     -0.6        3.2       0.9800
T_BUS2029_L       3        -3.1 +j     -0.6        3.2       0.9800
T_BUS2029_L       0         0.0 +j      0.0        0.0       1.0000
   TERMINAL TOTAL .....    -9.4 +j     -1.9        9.6       0.9800

ELEMENT = "Transformer.T_2030"
BUS2030           1         1.8 +j      0.9        2.0       0.8998
BUS2030           2         1.8 +j      0.9        2.0       0.8998
BUS2030           3         1.8 +j      0.9        2.0       0.8998
BUS2030           0         0.0 +j      0.0        0.0       1.0000
   TERMINAL TOTAL .....     5.3 +j      2.6        5.9       0.8998
T_BUS2030_L       1        -1.8 +j     -0.9        2.0       0.9000
T_BUS2030_L       2        -1.8 +j     -0.9        2.0       0.9000
T_BUS2030_L       3        -1.8 +j     -0.9        2.0       0.9000
T_BUS2030_L       0         0.0 +j      0.0        0.0       1.0000
   TERMINAL TOTAL .....    -5.3 +j     -2.6        5.9       0.9000

ELEMENT = "Transformer.T_2031"
BUS2031           1         3.3 +j      1.6        3.7       0.8993
BUS2031           0         0.0 +j      0.0        0.0       1.0000
   TERMINAL TOTAL .....     3.3 +j      1.6        3.7       0.8993
T_BUS2031_L       1        -1.6 +j     -0.8        1.8       0.9000
T_BUS2031_L       0         0.0 +j      0.0        0.0       1.0000
   TERMINAL TOTAL .....    -1.6 +j     -0.8        1.8       0.9000
T_BUS2031_L       0         0.0 +j      0.0        0.0       1.0000
T_BUS2031_L       2        -1.6 +j     -0.8        1.8       0.9000
   TERMINAL TOTAL .....    -1.6 +j     -0.8        1.8       0.9000

ELEMENT = "Transformer.T_2032"
BUS2032           1         0.7 +j      0.3        0.8       0.9099
BUS2032           2         0.7 +j      0.3        0.8       0.9099
BUS2032           3         0.7 +j      0.3        0.8       0.9099
BUS2032           0         0.0 +j      0.0        0.0       1.0000
   TERMINAL TOTAL .....     2.2 +j      1.0        2.4       0.9099
T_BUS2032_L       1        -0.7 +j     -0.3        0.8       0.9100
T_BUS2032_L       2        -0.7 +j     -0.3        0.8       0.9100
T_BUS2032_L       3        -0.7 +j     -0.3        0.8       0.9100
T_BUS2032_L       0         0.0 +j      0.0        0.0       1.0000
   TERMINAL TOTAL .....    -2.2 +j     -1.0        2.4       0.9100

ELEMENT = "Transformer.T_2034"
BUS2034           1         1.2 +j      0.6        1.3       0.8998
BUS2034           2         1.2 +j      0.6        1.3       0.8998
BUS2034           3         1.2 +j      0.6        1.3       0.8998
BUS2034           0         0.0 +j      0.0        0.0       1.0000
   TERMINAL TOTAL .....     3.6 +j      1.8        4.0       0.8998
T_BUS2034_L       1        -1.2 +j     -0.6        1.3       0.9000
T_BUS2034_L       2        -1.2 +j     -0.6        1.3       0.9000
T_BUS2034_L       3        -1.2 +j     -0.6        1.3       0.9000
T_BUS2034_L       0         0.0 +j      0.0        0.0       1.0000
   TERMINAL TOTAL .....    -3.6 +j     -1.8        4.0       0.9000

ELEMENT = "Transformer.T_2035"
BUS2035           1         1.3 +j      0.5        1.4       0.9398
BUS2035           2         1.3 +j      0.5        1.4       0.9398
BUS2035           3         1.3 +j      0.5        1.4       0.9398
BUS2035           0         0.0 +j      0.0        0.0       1.0000
   TERMINAL TOTAL .....     3.9 +j      1.4        4.2       0.9398
T_BUS2035_L       1        -1.3 +j     -0.5        1.4       0.9400
T_BUS2035_L       2        -1.3 +j     -0.5        1.4       0.9400
T_BUS2035_L       3        -1.3 +j     -0.5        1.4       0.9400
T_BUS2035_L       0         0.0 +j      0.0        0.0       1.0000
   TERMINAL TOTAL .....    -3.9 +j     -1.4        4.2       0.9400

ELEMENT = "Transformer.T_2037"
BUS2037           1         1.3 +j      0.4        1.4       0.9498
BUS2037           2         1.3 +j      0.4        1.4       0.9498
BUS2037           3         1.3 +j      0.4        1.4       0.9498
BUS2037           0         0.0 +j      0.0        0.0       1.0000
   TERMINAL TOTAL .....     4.0 +j      1.3        4.2       0.9498
T_BUS2037_L       1        -1.3 +j     -0.4        1.4       0.9500
T_BUS2037_L       2        -1.3 +j     -0.4        1.4       0.9500
T_BUS2037_L       3        -1.3 +j     -0.4        1.4       0.9500
T_BUS2037_L       0         0.0 +j      0.0        0.0       1.0000
   TERMINAL TOTAL .....    -3.9 +j     -1.3        4.1       0.9500

ELEMENT = "Transformer.T_2040"
BUS2040           1        27.4 +j      8.3       28.6       0.9570
BUS2040           2        27.4 +j      8.3       28.6       0.9570
BUS2040           3        27.4 +j      8.3       28.6       0.9570
BUS2040           0         0.0 +j      0.0        0.0       1.0000
   TERMINAL TOTAL .....    82.2 +j     24.9       85.9       0.9570
T_BUS2040_L       1       -27.3 +j     -7.9       28.4       0.9600
T_BUS2040_L       2       -27.3 +j     -7.9       28.4       0.9600
T_BUS2040_L       3       -27.3 +j     -7.9       28.4       0.9600
T_BUS2040_L       0         0.0 +j      0.0        0.0       1.0000
   TERMINAL TOTAL .....   -81.8 +j    -23.8       85.2       0.9600

ELEMENT = "Transformer.T_2041"
BUS2041           1         0.6 +j      0.1        0.7       0.9799
BUS2041           2         0.6 +j      0.1        0.7       0.9799
BUS2041           3         0.6 +j      0.1        0.7       0.9799
BUS2041           0         0.0 +j      0.0        0.0       1.0000
   TERMINAL TOTAL .....     1.9 +j      0.4        2.0       0.9799
T_BUS2041_L       1        -0.6 +j     -0.1        0.7       0.9800
T_BUS2041_L       2        -0.6 +j     -0.1        0.7       0.9800
T_BUS2041_L       3        -0.6 +j     -0.1        0.7       0.9800
T_BUS2041_L       0         0.0 +j      0.0        0.0       1.0000
   TERMINAL TOTAL .....    -1.9 +j     -0.4        2.0       0.9800

ELEMENT = "Transformer.T_2042"
BUS2042           1         1.4 +j      0.7        1.6       0.8998
BUS2042           2         1.4 +j      0.7        1.6       0.8998
BUS2042           3         1.4 +j      0.7        1.6       0.8998
BUS2042           0         0.0 +j      0.0        0.0       1.0000
   TERMINAL TOTAL .....     4.2 +j      2.1        4.7       0.8998
T_BUS2042_L       1        -1.4 +j     -0.7        1.6       0.9000
T_BUS2042_L       2        -1.4 +j     -0.7        1.6       0.9000
T_BUS2042_L       3        -1.4 +j     -0.7        1.6       0.9000
T_BUS2042_L       0         0.0 +j      0.0        0.0       1.0000
   TERMINAL TOTAL .....    -4.2 +j     -2.0        4.7       0.9000

ELEMENT = "Transformer.T_2043"
BUS2043           1         2.2 +j      0.5        2.2       0.9697
BUS2043           2         2.2 +j      0.5        2.2       0.9697
BUS2043           3         2.2 +j      0.5        2.2       0.9697
BUS2043           0         0.0 +j      0.0        0.0       1.0000
   TERMINAL TOTAL .....     6.5 +j      1.6        6.7       0.9697
T_BUS2043_L       1        -2.2 +j     -0.5        2.2       0.9700
T_BUS2043_L       2        -2.2 +j     -0.5        2.2       0.9700
T_BUS2043_L       3        -2.2 +j     -0.5        2.2       0.9700
T_BUS2043_L       0         0.0 +j      0.0        0.0       1.0000
   TERMINAL TOTAL .....    -6.5 +j     -1.6        6.7       0.9700

ELEMENT = "Transformer.T_2045"
BUS2045           2         2.2 +j      0.5        2.2       0.9697
BUS2045           0         0.0 +j      0.0        0.0       1.0000
   TERMINAL TOTAL .....     2.2 +j      0.5        2.2       0.9697
T_BUS2045_L       1        -1.1 +j     -0.3        1.1       0.9700
T_BUS2045_L       0         0.0 +j      0.0        0.0       1.0000
   TERMINAL TOTAL .....    -1.1 +j     -0.3        1.1       0.9700
T_BUS2045_L       0         0.0 +j      0.0        0.0       1.0000
T_BUS2045_L       2        -1.1 +j     -0.3        1.1       0.9700
   TERMINAL TOTAL .....    -1.1 +j     -0.3        1.1       0.9700

ELEMENT = "Transformer.T_2046"
BUS2046           2         6.6 +j      2.8        7.2       0.9193
BUS2046           0         0.0 +j      0.0        0.0       1.0000
   TERMINAL TOTAL .....     6.6 +j      2.8        7.2       0.9193
T_BUS2046_L       1        -3.3 +j     -1.4        3.6       0.9200
T_BUS2046_L       0         0.0 +j      0.0        0.0       1.0000
   TERMINAL TOTAL .....    -3.3 +j     -1.4        3.6       0.9200
T_BUS2046_L       0         0.0 +j      0.0        0.0       1.0000
T_BUS2046_L       2        -3.3 +j     -1.4        3.6       0.9200
   TERMINAL TOTAL .....    -3.3 +j     -1.4        3.6       0.9200

ELEMENT = "Transformer.T_2047"
BUS2047           2         5.5 +j      1.4        5.7       0.9696
BUS2047           0         0.0 +j      0.0        0.0       1.0000
   TERMINAL TOTAL .....     5.5 +j      1.4        5.7       0.9696
T_BUS2047_L       1        -2.8 +j     -0.7        2.8       0.9700
T_BUS2047_L       0         0.0 +j      0.0        0.0       1.0000
   TERMINAL TOTAL .....    -2.8 +j     -0.7        2.8       0.9700
T_BUS2047_L       0         0.0 +j      0.0        0.0       1.0000
T_BUS2047_L       2        -2.8 +j     -0.7        2.8       0.9700
   TERMINAL TOTAL .....    -2.8 +j     -0.7        2.8       0.9700

ELEMENT = "Transformer.T_2048"
BUS2048           2         3.8 +j      1.7        4.1       0.9096
BUS2048           0         0.0 +j      0.0        0.0       1.0000
   TERMINAL TOTAL .....     3.8 +j      1.7        4.1       0.9096
T_BUS2048_L       1        -1.9 +j     -0.9        2.1       0.9100
T_BUS2048_L       0         0.0 +j      0.0        0.0       1.0000
   TERMINAL TOTAL .....    -1.9 +j     -0.9        2.1       0.9100
T_BUS2048_L       0         0.0 +j      0.0        0.0       1.0000
T_BUS2048_L       2        -1.9 +j     -0.9        2.1       0.9100
   TERMINAL TOTAL .....    -1.9 +j     -0.9        2.1       0.9100

ELEMENT = "Transformer.T_2049"
BUS2049           3         3.5 +j      1.3        3.8       0.9396
BUS2049           0         0.0 +j      0.0        0.0       1.0000
   TERMINAL TOTAL .....     3.5 +j      1.3        3.8       0.9396
T_BUS2049_L       1        -1.8 +j     -0.6        1.9       0.9400
T_BUS2049_L       0         0.0 +j      0.0        0.0       1.0000
   TERMINAL TOTAL .....    -1.8 +j     -0.6        1.9       0.9400
T_BUS2049_L       0         0.0 +j      0.0        0.0       1.0000
T_BUS2049_L       2        -1.8 +j     -0.6        1.9       0.9400
   TERMINAL TOTAL .....    -1.8 +j     -0.6        1.9       0.9400

ELEMENT = "Transformer.T_2050"
BUS2050           3         3.8 +j      0.5        3.8       0.9898
BUS2050           0         0.0 +j      0.0        0.0       1.0000
   TERMINAL TOTAL .....     3.8 +j      0.5        3.8       0.9898
T_BUS2050_L       1        -1.9 +j     -0.3        1.9       0.9900
T_BUS2050_L       0         0.0 +j      0.0        0.0       1.0000
   TERMINAL TOTAL .....    -1.9 +j     -0.3        1.9       0.9900
T_BUS2050_L       0         0.0 +j      0.0        0.0       1.0000
T_BUS2050_L       2        -1.9 +j     -0.3        1.9       0.9900
   TERMINAL TOTAL .....    -1.9 +j     -0.3        1.9       0.9900

ELEMENT = "Transformer.T_2051"
BUS2051           3         5.8 +j      2.5        6.3       0.9193
BUS2051           0         0.0 +j      0.0        0.0       1.0000
   TERMINAL TOTAL .....     5.8 +j      2.5        6.3       0.9193
T_BUS2051_L       1        -2.9 +j     -1.2        3.1       0.9200
T_BUS2051_L       0         0.0 +j      0.0        0.0       1.0000
   TERMINAL TOTAL .....    -2.9 +j     -1.2        3.1       0.9200
T_BUS2051_L       0         0.0 +j      0.0        0.0       1.0000
T_BUS2051_L       2        -2.9 +j     -1.2        3.1       0.9200
   TERMINAL TOTAL .....    -2.9 +j     -1.2        3.1       0.9200

ELEMENT = "Transformer.T_2052"
BUS2052           1        13.4 +j      5.8       14.6       0.9175
BUS2052           2        13.4 +j      5.8       14.6       0.9175
BUS2052           3        13.4 +j      5.8       14.6       0.9175
BUS2052           0         0.0 +j      0.0        0.0       1.0000
   TERMINAL TOTAL .....    40.2 +j     17.4       43.8       0.9175
T_BUS2052_L       1       -13.3 +j     -5.7       14.5       0.9200
T_BUS2052_L       2       -13.3 +j     -5.7       14.5       0.9200
T_BUS2052_L       3       -13.3 +j     -5.7       14.5       0.9200
T_BUS2052_L       0         0.0 +j      0.0        0.0       1.0000
   TERMINAL TOTAL .....   -40.0 +j    -17.1       43.5       0.9200

ELEMENT = "Transformer.T_2053"
BUS2053           1         1.4 +j      0.7        1.6       0.9097
BUS2053           2         1.4 +j      0.7        1.6       0.9097
BUS2053           3         1.4 +j      0.7        1.6       0.9097
BUS2053           0         0.0 +j      0.0        0.0       1.0000
   TERMINAL TOTAL .....     4.3 +j      2.0        4.7       0.9097
T_BUS2053_L       1        -1.4 +j     -0.7        1.6       0.9100
T_BUS2053_L       2        -1.4 +j     -0.7        1.6       0.9100
T_BUS2053_L       3        -1.4 +j     -0.7        1.6       0.9100
T_BUS2053_L       0         0.0 +j      0.0        0.0       1.0000
   TERMINAL TOTAL .....    -4.3 +j     -2.0        4.7       0.9100

ELEMENT = "Transformer.T_2054"
BUS2054           1         7.2 +j      3.5        8.0       0.8991
BUS2054           0         0.0 +j      0.0        0.0       1.0000
   TERMINAL TOTAL .....     7.2 +j      3.5        8.0       0.8991
T_BUS2054_L       1        -3.6 +j     -1.7        4.0       0.9000
T_BUS2054_L       0         0.0 +j      0.0        0.0       1.0000
   TERMINAL TOTAL .....    -3.6 +j     -1.7        4.0       0.9000
T_BUS2054_L       0         0.0 +j      0.0        0.0       1.0000
T_BUS2054_L       2        -3.6 +j     -1.7        4.0       0.9000
   TERMINAL TOTAL .....    -3.6 +j     -1.7        4.0       0.9000

ELEMENT = "Transformer.T_2055"
BUS2055           1         4.3 +j      1.2        4.4       0.9597
BUS2055           0         0.0 +j      0.0        0.0       1.0000
   TERMINAL TOTAL .....     4.3 +j      1.2        4.4       0.9597
T_BUS2055_L       1        -2.1 +j     -0.6        2.2       0.9600
T_BUS2055_L       0         0.0 +j      0.0        0.0       1.0000
   TERMINAL TOTAL .....    -2.1 +j     -0.6        2.2       0.9600
T_BUS2055_L       0         0.0 +j      0.0        0.0       1.0000
T_BUS2055_L       2        -2.1 +j     -0.6        2.2       0.9600
   TERMINAL TOTAL .....    -2.1 +j     -0.6        2.2       0.9600

ELEMENT = "Transformer.T_2056"
BUS2056           1         4.7 +j      2.0        5.2       0.9191
BUS2056           0         0.0 +j      0.0        0.0       1.0000
   TERMINAL TOTAL .....     4.7 +j      2.0        5.2       0.9191
T_BUS2056_L       1        -2.4 +j     -1.0        2.6       0.9200
T_BUS2056_L       0         0.0 +j      0.0        0.0       1.0000
   TERMINAL TOTAL .....    -2.4 +j     -1.0        2.6       0.9200
T_BUS2056_L       0         0.0 +j      0.0        0.0       1.0000
T_BUS2056_L       2        -2.4 +j     -1.0        2.6       0.9200
   TERMINAL TOTAL .....    -2.4 +j     -1.0        2.6       0.9200

ELEMENT = "Transformer.T_2058"
BUS2058           1        10.5 +j      3.9       11.2       0.9387
BUS2058           2        10.5 +j      3.9       11.2       0.9387
BUS2058           3        10.5 +j      3.9       11.2       0.9387
BUS2058           0         0.0 +j      0.0        0.0       1.0000
   TERMINAL TOTAL .....    31.5 +j     11.6       33.6       0.9387
T_BUS2058_L       1       -10.5 +j     -3.8       11.2       0.9400
T_BUS2058_L       2       -10.5 +j     -3.8       11.2       0.9400
T_BUS2058_L       3       -10.5 +j     -3.8       11.2       0.9400
T_BUS2058_L       0         0.0 +j      0.0        0.0       1.0000
   TERMINAL TOTAL .....   -31.5 +j    -11.4       33.5       0.9400

ELEMENT = "Transformer.T_2059"
BUS2059           2         2.6 +j      1.3        2.9       0.8994
BUS2059           0         0.0 +j      0.0        0.0       1.0000
   TERMINAL TOTAL .....     2.6 +j      1.3        2.9       0.8994
T_BUS2059_L       1        -1.3 +j     -0.6        1.5       0.9000
T_BUS2059_L       0         0.0 +j      0.0        0.0       1.0000
   TERMINAL TOTAL .....    -1.3 +j     -0.6        1.5       0.9000
T_BUS2059_L       0         0.0 +j      0.0        0.0       1.0000
T_BUS2059_L       2        -1.3 +j     -0.6        1.5       0.9000
   TERMINAL TOTAL .....    -1.3 +j     -0.6        1.5       0.9000

ELEMENT = "Transformer.T_2060"
BUS2060           2         1.9 +j      0.6        2.1       0.9497
BUS2060           0         0.0 +j      0.0        0.0       1.0000
   TERMINAL TOTAL .....     1.9 +j      0.6        2.1       0.9497
T_BUS2060_L       1        -1.0 +j     -0.3        1.0       0.9500
T_BUS2060_L       0         0.0 +j      0.0        0.0       1.0000
   TERMINAL TOTAL .....    -1.0 +j     -0.3        1.0       0.9500
T_BUS2060_L       0         0.0 +j      0.0        0.0       1.0000
T_BUS2060_L       2        -1.0 +j     -0.3        1.0       0.9500
   TERMINAL TOTAL .....    -1.0 +j     -0.3        1.0       0.9500

ELEMENT = "Transformer.T_3002"
BUS3002           1         6.6 +j      2.4        7.1       0.9388
BUS3002           2         6.6 +j      2.4        7.1       0.9388
BUS3002           3         6.6 +j      2.4        7.1       0.9388
BUS3002           0         0.0 +j      0.0        0.0       1.0000
   TERMINAL TOTAL .....    19.9 +j      7.3       21.2       0.9388
T_BUS3002_L       1        -6.5 +j     -2.4        7.0       0.9400
T_BUS3002_L       2        -6.5 +j     -2.4        7.0       0.9400
T_BUS3002_L       3        -6.5 +j     -2.4        7.0       0.9400
T_BUS3002_L       0         0.0 +j      0.0        0.0       1.0000
   TERMINAL TOTAL .....   -19.6 +j     -7.1       20.9       0.9400

ELEMENT = "Transformer.T_3004"
BUS3004           1         1.0 +j      0.5        1.2       0.8998
BUS3004           2         1.0 +j      0.5        1.2       0.8998
BUS3004           3         1.0 +j      0.5        1.2       0.8998
BUS3004           0         0.0 +j      0.0        0.0       1.0000
   TERMINAL TOTAL .....     3.1 +j      1.5        3.5       0.8998
T_BUS3004_L       1        -1.0 +j     -0.5        1.2       0.9000
T_BUS3004_L       2        -1.0 +j     -0.5        1.2       0.9000
T_BUS3004_L       3        -1.0 +j     -0.5        1.2       0.9000
T_BUS3004_L       0         0.0 +j      0.0        0.0       1.0000
   TERMINAL TOTAL .....    -3.1 +j     -1.5        3.5       0.9000

ELEMENT = "Transformer.T_3006"
BUS3006           1         1.3 +j      0.6        1.5       0.9098
BUS3006           2         1.3 +j      0.6        1.5       0.9098
BUS3006           3         1.3 +j      0.6        1.5       0.9098
BUS3006           0         0.0 +j      0.0        0.0       1.0000
   TERMINAL TOTAL .....     4.0 +j      1.8        4.4       0.9098
T_BUS3006_L       1        -1.3 +j     -0.6        1.5       0.9100
T_BUS3006_L       2        -1.3 +j     -0.6        1.5       0.9100
T_BUS3006_L       3        -1.3 +j     -0.6        1.5       0.9100
T_BUS3006_L       0         0.0 +j      0.0        0.0       1.0000
   TERMINAL TOTAL .....    -4.0 +j     -1.8        4.4       0.9100

ELEMENT = "Transformer.T_3007"
BUS3007           1         3.2 +j      1.5        3.5       0.8996
BUS3007           2         3.2 +j      1.5        3.5       0.8996
BUS3007           3         3.2 +j      1.5        3.5       0.8996
BUS3007           0         0.0 +j      0.0        0.0       1.0000
   TERMINAL TOTAL .....     9.5 +j      4.6       10.5       0.8996
T_BUS3007_L       1        -3.1 +j     -1.5        3.5       0.9000
T_BUS3007_L       2        -3.1 +j     -1.5        3.5       0.9000
T_BUS3007_L       3        -3.1 +j     -1.5        3.5       0.9000
T_BUS3007_L       0         0.0 +j      0.0        0.0       1.0000
   TERMINAL TOTAL .....    -9.4 +j     -4.6       10.5       0.9000

ELEMENT = "Transformer.T_3009"
BUS3009           1         4.1 +j      1.6        4.4       0.9295
BUS3009           0         0.0 +j      0.0        0.0       1.0000
   TERMINAL TOTAL .....     4.1 +j      1.6        4.4       0.9295
T_BUS3009_L       1        -2.0 +j     -0.8        2.2       0.9300
T_BUS3009_L       0         0.0 +j      0.0        0.0       1.0000
   TERMINAL TOTAL .....    -2.0 +j     -0.8        2.2       0.9300
T_BUS3009_L       0         0.0 +j      0.0        0.0       1.0000
T_BUS3009_L       2        -2.0 +j     -0.8        2.2       0.9300
   TERMINAL TOTAL .....    -2.0 +j     -0.8        2.2       0.9300

ELEMENT = "Transformer.T_3010"
BUS3010           1         4.9 +j      2.0        5.3       0.9294
BUS3010           0         0.0 +j      0.0        0.0       1.0000
   TERMINAL TOTAL .....     4.9 +j      2.0        5.3       0.9294
T_BUS3010_L       1        -2.5 +j     -1.0        2.7       0.9300
T_BUS3010_L       0         0.0 +j      0.0        0.0       1.0000
   TERMINAL TOTAL .....    -2.5 +j     -1.0        2.7       0.9300
T_BUS3010_L       0         0.0 +j      0.0        0.0       1.0000
T_BUS3010_L       2        -2.5 +j     -1.0        2.7       0.9300
   TERMINAL TOTAL .....    -2.5 +j     -1.0        2.7       0.9300

ELEMENT = "Transformer.T_3011"
BUS3011           1         7.4 +j      2.5        7.8       0.9492
BUS3011           0         0.0 +j      0.0        0.0       1.0000
   TERMINAL TOTAL .....     7.4 +j      2.5        7.8       0.9492
T_BUS3011_L       1        -3.7 +j     -1.2        3.9       0.9500
T_BUS3011_L       0         0.0 +j      0.0        0.0       1.0000
   TERMINAL TOTAL .....    -3.7 +j     -1.2        3.9       0.9500
T_BUS3011_L       0         0.0 +j      0.0        0.0       1.0000
T_BUS3011_L       2        -3.7 +j     -1.2        3.9       0.9500
   TERMINAL TOTAL .....    -3.7 +j     -1.2        3.9       0.9500

ELEMENT = "Transformer.T_3012"
BUS3012           1         3.8 +j      1.4        4.0       0.9396
BUS3012           0         0.0 +j      0.0        0.0       1.0000
   TERMINAL TOTAL .....     3.8 +j      1.4        4.0       0.9396
T_BUS3012_L       1        -1.9 +j     -0.7        2.0       0.9400
T_BUS3012_L       0         0.0 +j      0.0        0.0       1.0000
   TERMINAL TOTAL .....    -1.9 +j     -0.7        2.0       0.9400
T_BUS3012_L       0         0.0 +j      0.0        0.0       1.0000
T_BUS3012_L       2        -1.9 +j     -0.7        2.0       0.9400
   TERMINAL TOTAL .....    -1.9 +j     -0.7        2.0       0.9400

ELEMENT = "Transformer.T_3013"
BUS3013           2         2.5 +j      0.7        2.6       0.9596
BUS3013           0         0.0 +j      0.0        0.0       1.0000
   TERMINAL TOTAL .....     2.5 +j      0.7        2.6       0.9596
T_BUS3013_L       1        -1.3 +j     -0.4        1.3       0.9600
T_BUS3013_L       0         0.0 +j      0.0        0.0       1.0000
   TERMINAL TOTAL .....    -1.3 +j     -0.4        1.3       0.9600
T_BUS3013_L       0         0.0 +j      0.0        0.0       1.0000
T_BUS3013_L       2        -1.3 +j     -0.4        1.3       0.9600
   TERMINAL TOTAL .....    -1.3 +j     -0.4        1.3       0.9600

ELEMENT = "Transformer.T_3014"
BUS3014           2         3.1 +j      1.3        3.4       0.9196
BUS3014           0         0.0 +j      0.0        0.0       1.0000
   TERMINAL TOTAL .....     3.1 +j      1.3        3.4       0.9196
T_BUS3014_L       1        -1.6 +j     -0.7        1.7       0.9200
T_BUS3014_L       0         0.0 +j      0.0        0.0       1.0000
   TERMINAL TOTAL .....    -1.6 +j     -0.7        1.7       0.9200
T_BUS3014_L       0         0.0 +j      0.0        0.0       1.0000
T_BUS3014_L       2        -1.6 +j     -0.7        1.7       0.9200
   TERMINAL TOTAL .....    -1.6 +j     -0.7        1.7       0.9200

ELEMENT = "Transformer.T_3016"
BUS3016           2         6.3 +j      3.0        7.0       0.8992
BUS3016           0         0.0 +j      0.0        0.0       1.0000
   TERMINAL TOTAL .....     6.3 +j      3.0        7.0       0.8992
T_BUS3016_L       1        -3.1 +j     -1.5        3.5       0.9000
T_BUS3016_L       0         0.0 +j      0.0        0.0       1.0000
   TERMINAL TOTAL .....    -3.1 +j     -1.5        3.5       0.9000
T_BUS3016_L       0         0.0 +j      0.0        0.0       1.0000
T_BUS3016_L       2        -3.1 +j     -1.5        3.5       0.9000
   TERMINAL TOTAL .....    -3.1 +j     -1.5        3.5       0.9000

ELEMENT = "Transformer.T_3017"
BUS3017           2         8.5 +j      2.5        8.9       0.9596
BUS3017           0         0.0 +j      0.0        0.0       1.0000
   TERMINAL TOTAL .....     8.5 +j      2.5        8.9       0.9596
T_BUS3017_L       1        -4.2 +j     -1.2        4.4       0.9600
T_BUS3017_L       0         0.0 +j      0.0        0.0       1.0000
   TERMINAL TOTAL .....    -4.2 +j     -1.2        4.4       0.9600
T_BUS3017_L       0         0.0 +j      0.0        0.0       1.0000
T_BUS3017_L       2        -4.2 +j     -1.2        4.4       0.9600
   TERMINAL TOTAL .....    -4.2 +j     -1.2        4.4       0.9600

ELEMENT = "Transformer.T_3018"
BUS3018           3         5.4 +j      2.0        5.7       0.9394
BUS3018           0         0.0 +j      0.0        0.0       1.0000
   TERMINAL TOTAL .....     5.4 +j      2.0        5.7       0.9394
T_BUS3018_L       1        -2.7 +j     -1.0        2.8       0.9400
T_BUS3018_L       0         0.0 +j      0.0        0.0       1.0000
   TERMINAL TOTAL .....    -2.7 +j     -1.0        2.8       0.9400
T_BUS3018_L       0         0.0 +j      0.0        0.0       1.0000
T_BUS3018_L       2        -2.7 +j     -1.0        2.8       0.9400
   TERMINAL TOTAL .....    -2.7 +j     -1.0        2.8       0.9400

ELEMENT = "Transformer.T_3019"
BUS3019           3         5.4 +j      1.8        5.7       0.9494
BUS3019           0         0.0 +j      0.0        0.0       1.0000
   TERMINAL TOTAL .....     5.4 +j      1.8        5.7       0.9494
T_BUS3019_L       1        -2.7 +j     -0.9        2.8       0.9500
T_BUS3019_L       0         0.0 +j      0.0        0.0       1.0000
   TERMINAL TOTAL .....    -2.7 +j     -0.9        2.8       0.9500
T_BUS3019_L       0         0.0 +j      0.0        0.0       1.0000
T_BUS3019_L       2        -2.7 +j     -0.9        2.8       0.9500
   TERMINAL TOTAL .....    -2.7 +j     -0.9        2.8       0.9500

ELEMENT = "Transformer.T_3020"
BUS3020           3         6.0 +j      2.7        6.6       0.9096
BUS3020           0         0.0 +j      0.0        0.0       1.0000
   TERMINAL TOTAL .....     6.0 +j      2.7        6.6       0.9096
T_BUS3020_L       1        -3.0 +j     -1.4        3.3       0.9100
T_BUS3020_L       0         0.0 +j      0.0        0.0       1.0000
   TERMINAL TOTAL .....    -3.0 +j     -1.4        3.3       0.9100
T_BUS3020_L       0         0.0 +j      0.0        0.0       1.0000
T_BUS3020_L       2        -3.0 +j     -1.4        3.3       0.9100
   TERMINAL TOTAL .....    -3.0 +j     -1.4        3.3       0.9100

ELEMENT = "Transformer.T_3021"
BUS3021           3         7.8 +j      3.6        8.5       0.9090
BUS3021           0         0.0 +j      0.0        0.0       1.0000
   TERMINAL TOTAL .....     7.8 +j      3.6        8.5       0.9090
T_BUS3021_L       1        -3.9 +j     -1.8        4.2       0.9100
T_BUS3021_L       0         0.0 +j      0.0        0.0       1.0000
   TERMINAL TOTAL .....    -3.9 +j     -1.8        4.2       0.9100
T_BUS3021_L       0         0.0 +j      0.0        0.0       1.0000
T_BUS3021_L       2        -3.9 +j     -1.8        4.2       0.9100
   TERMINAL TOTAL .....    -3.9 +j     -1.8        4.2       0.9100

ELEMENT = "Transformer.T_3023"
BUS3023           1         4.3 +j      0.6        4.4       0.9898
BUS3023           0         0.0 +j      0.0        0.0       1.0000
   TERMINAL TOTAL .....     4.3 +j      0.6        4.4       0.9898
T_BUS3023_L       1        -2.2 +j     -0.3        2.2       0.9900
T_BUS3023_L       0         0.0 +j      0.0        0.0       1.0000
   TERMINAL TOTAL .....    -2.2 +j     -0.3        2.2       0.9900
T_BUS3023_L       0         0.0 +j      0.0        0.0       1.0000
T_BUS3023_L       2        -2.2 +j     -0.3        2.2       0.9900
   TERMINAL TOTAL .....    -2.2 +j     -0.3        2.2       0.9900

ELEMENT = "Transformer.T_3024"
BUS3024           1         5.0 +j      2.0        5.4       0.9294
BUS3024           0         0.0 +j      0.0        0.0       1.0000
   TERMINAL TOTAL .....     5.0 +j      2.0        5.4       0.9294
T_BUS3024_L       1        -2.5 +j     -1.0        2.7       0.9300
T_BUS3024_L       0         0.0 +j      0.0        0.0       1.0000
   TERMINAL TOTAL .....    -2.5 +j     -1.0        2.7       0.9300
T_BUS3024_L       0         0.0 +j      0.0        0.0       1.0000
T_BUS3024_L       2        -2.5 +j     -1.0        2.7       0.9300
   TERMINAL TOTAL .....    -2.5 +j     -1.0        2.7       0.9300

ELEMENT = "Transformer.T_3025"
BUS3025           1         6.6 +j      1.9        6.8       0.9595
BUS3025           0         0.0 +j      0.0        0.0       1.0000
   TERMINAL TOTAL .....     6.6 +j      1.9        6.8       0.9595
T_BUS3025_L       1        -3.3 +j     -1.0        3.4       0.9600
T_BUS3025_L       0         0.0 +j      0.0        0.0       1.0000
   TERMINAL TOTAL .....    -3.3 +j     -1.0        3.4       0.9600
T_BUS3025_L       0         0.0 +j      0.0        0.0       1.0000
T_BUS3025_L       2        -3.3 +j     -1.0        3.4       0.9600
   TERMINAL TOTAL .....    -3.3 +j     -1.0        3.4       0.9600

ELEMENT = "Transformer.T_3026"
BUS3026           1        10.3 +j      2.1       10.5       0.9792
BUS3026           0         0.0 +j      0.0        0.0       1.0000
   TERMINAL TOTAL .....    10.3 +j      2.1       10.5       0.9792
T_BUS3026_L       1        -5.1 +j     -1.0        5.2       0.9800
T_BUS3026_L       0         0.0 +j      0.0        0.0       1.0000
   TERMINAL TOTAL .....    -5.1 +j     -1.0        5.2       0.9800
T_BUS3026_L       0         0.0 +j      0.0        0.0       1.0000
T_BUS3026_L       2        -5.1 +j     -1.0        5.2       0.9800
   TERMINAL TOTAL .....    -5.1 +j     -1.0        5.2       0.9800

ELEMENT = "Transformer.T_3027"
BUS3027           1         7.1 +j      1.5        7.3       0.9797
BUS3027           0         0.0 +j      0.0        0.0       1.0000
   TERMINAL TOTAL .....     7.1 +j      1.5        7.3       0.9797
T_BUS3027_L       1        -3.6 +j     -0.7        3.6       0.9800
T_BUS3027_L       0         0.0 +j      0.0        0.0       1.0000
   TERMINAL TOTAL .....    -3.6 +j     -0.7        3.6       0.9800
T_BUS3027_L       0         0.0 +j      0.0        0.0       1.0000
T_BUS3027_L       2        -3.6 +j     -0.7        3.6       0.9800
   TERMINAL TOTAL .....    -3.6 +j     -0.7        3.6       0.9800

ELEMENT = "Transformer.T_3028"
BUS3028           1        11.0 +j      5.4       12.3       0.8992
BUS3028           0         0.0 +j      0.0        0.0       1.0000
   TERMINAL TOTAL .....    11.0 +j      5.4       12.3       0.8992
T_BUS3028_L       1        -5.5 +j     -2.7        6.1       0.9000
T_BUS3028_L       0         0.0 +j      0.0        0.0       1.0000
   TERMINAL TOTAL .....    -5.5 +j     -2.7        6.1       0.9000
T_BUS3028_L       0         0.0 +j      0.0        0.0       1.0000
T_BUS3028_L       2        -5.5 +j     -2.7        6.1       0.9000
   TERMINAL TOTAL .....    -5.5 +j     -2.7        6.1       0.9000

ELEMENT = "Transformer.T_3029"
BUS3029           1         2.5 +j      1.2        2.8       0.8997
BUS3029           0         0.0 +j      0.0        0.0       1.0000
   TERMINAL TOTAL .....     2.5 +j      1.2        2.8       0.8997
T_BUS3029_L       1        -1.2 +j     -0.6        1.4       0.9000
T_BUS3029_L       0         0.0 +j      0.0        0.0       1.0000
   TERMINAL TOTAL .....    -1.2 +j     -0.6        1.4       0.9000
T_BUS3029_L       0         0.0 +j      0.0        0.0       1.0000
T_BUS3029_L       2        -1.2 +j     -0.6        1.4       0.9000
   TERMINAL TOTAL .....    -1.2 +j     -0.6        1.4       0.9000

ELEMENT = "Transformer.T_3031"
BUS3031           1         1.4 +j      0.3        1.5       0.9798
BUS3031           2         1.4 +j      0.3        1.5       0.9798
BUS3031           3         1.4 +j      0.3        1.5       0.9798
BUS3031           0         0.0 +j      0.0        0.0       1.0000
   TERMINAL TOTAL .....     4.3 +j      0.9        4.4       0.9798
T_BUS3031_L       1        -1.4 +j     -0.3        1.5       0.9800
T_BUS3031_L       2        -1.4 +j     -0.3        1.5       0.9800
T_BUS3031_L       3        -1.4 +j     -0.3        1.5       0.9800
T_BUS3031_L       0         0.0 +j      0.0        0.0       1.0000
   TERMINAL TOTAL .....    -4.3 +j     -0.9        4.4       0.9800

ELEMENT = "Transformer.T_3032"
BUS3032           1         1.9 +j      0.9        2.1       0.8997
BUS3032           2         1.9 +j      0.9        2.1       0.8997
BUS3032           3         1.9 +j      0.9        2.1       0.8997
BUS3032           0         0.0 +j      0.0        0.0       1.0000
   TERMINAL TOTAL .....     5.7 +j      2.8        6.4       0.8997
T_BUS3032_L       1        -1.9 +j     -0.9        2.1       0.9000
T_BUS3032_L       2        -1.9 +j     -0.9        2.1       0.9000
T_BUS3032_L       3        -1.9 +j     -0.9        2.1       0.9000
T_BUS3032_L       0         0.0 +j      0.0        0.0       1.0000
   TERMINAL TOTAL .....    -5.7 +j     -2.8        6.3       0.9000

ELEMENT = "Transformer.T_3033"
BUS3033           1         3.3 +j      1.2        3.5       0.9394
BUS3033           2         3.3 +j      1.2        3.5       0.9394
BUS3033           3         3.3 +j      1.2        3.5       0.9394
BUS3033           0         0.0 +j      0.0        0.0       1.0000
   TERMINAL TOTAL .....     9.8 +j      3.6       10.5       0.9394
T_BUS3033_L       1        -3.3 +j     -1.2        3.5       0.9400
T_BUS3033_L       2        -3.3 +j     -1.2        3.5       0.9400
T_BUS3033_L       3        -3.3 +j     -1.2        3.5       0.9400
T_BUS3033_L       0         0.0 +j      0.0        0.0       1.0000
   TERMINAL TOTAL .....    -9.8 +j     -3.5       10.4       0.9400

ELEMENT = "Transformer.T_3034"
BUS3034           1         1.6 +j      0.2        1.6       0.9898
BUS3034           2         1.6 +j      0.2        1.6       0.9898
BUS3034           3         1.6 +j      0.2        1.6       0.9898
BUS3034           0         0.0 +j      0.0        0.0       1.0000
   TERMINAL TOTAL .....     4.8 +j      0.7        4.8       0.9898
...